/*--------------------------------*- C++ -*----------------------------------*\
| =========                 |                                                 |
| \\      /  F ield         | OpenFOAM: The Open Source CFD Toolbox           |
|  \\    /   O peration     | Version:  v2212                                 |
|   \\  /    A nd           | Website:  www.openfoam.com                      |
|    \\/     M anipulation  |                                                 |
\*---------------------------------------------------------------------------*/
FoamFile
{
    version     2.0;
    format      ascii;
    class       volScalarField;
    object      p;
}
// * * * * * * * * * * * * * * * * * * * * * * * * * * * * * * * * * * * * * //

#include        "../../include/settings" // It's not "../include/settings" because it will be run from processor* folders, which need on more ../

dimensions      [0 2 -2 0 0 0 0];

internalField   uniform $pressure;  // Parameters imported from DragAndDownForcePractice/meshGenerator/include/settings

boundaryField
{
    #includeEtc "caseDicts/setConstraintTypes"

    inlet
    {
        type            zeroGradient;
    }

    outlet
    {
        type            fixedValue;
        value           $internalField; // Parameters defined in this file
    }

    lowerWall
    {
        type            zeroGradient;
    }

    $geometry_boundary  // Parameters imported from DragAndDownForcePractice/meshGenerator/include/settings sourced via DragAndDownForcePractice/flowSimulation/include/setting
    {
        type            zeroGradient;
    }

    upperWall
    {
        type slip;
    }

    frontAndBack
    {
        type slip;
    }
}


// ************************************************************************* //
